# Mol2 file generated by Materials Studio
@<TRIPOS>MOLECULE
"PTB7-Th_tetramer"
462 489 1 0 0 
SMALL
USER_CHARGES


@<TRIPOS>ATOM
1 C 19.432 -2.047 -1.964 C.3 1 **** 0
2 C 18.817 -1.031 -1.18 C.3 1 **** 0
3 C 19.622 -0.046 -0.541 C.3 1 **** 0
4 C 21.018 0.003 -0.627 C.3 1 **** 0
5 C 21.63 -1 -1.426 C.3 1 **** 0
6 C 20.828 -1.988 -2.064 C.3 1 **** 0
7 C 18.661 -3.099 -2.639 C.3 1 **** 0
8 C 18.695 -3.476 -3.956 C.3 1 **** 0
9 S 17.51 -4.182 -1.719 S.3 1 **** 0
10 C 17.841 -4.577 -4.29 C.3 1 **** 0
11 H 19.306 -2.961 -4.687 H 1 **** 0
12 C 17.128 -5.099 -3.245 C.3 1 **** 0
13 H 17.749 -4.963 -5.299 H 1 **** 0
14 C 21.785 1.039 0.077 C.3 1 **** 0
15 C 21.617 2.4 0.048 C.3 1 **** 0
16 S 23.118 0.61 1.253 S.3 1 **** 0
17 C 22.498 3.135 0.904 C.3 1 **** 0
18 H 20.883 2.876 -0.591 H 1 **** 0
19 C 23.37 2.371 1.632 C.3 1 **** 0
20 H 22.485 4.217 0.97 H 1 **** 0
21 C 17.414 -0.848 -0.938 C.3 1 **** 0
22 H 16.663 -1.494 -1.372 H 1 **** 0
23 C 17.092 0.211 -0.13 C.3 1 **** 0
24 S 18.595 1.116 0.416 S.3 1 **** 0
25 C 23.042 -1.166 -1.7 C.3 1 **** 0
26 C 23.334 -2.231 -2.486 C.3 1 **** 0
27 S 21.869 -3.164 -2.998 S.3 1 **** 0
28 H 24.301 -2.562 -2.832 H 1 **** 0
29 C 15.794 0.645 0.287 C.3 1 **** 0
30 C 15.368 1.735 1.007 C.3 1 **** 0
31 C 13.198 0.797 0.698 C.3 1 **** 0
32 C 13.95 1.837 1.244 C.3 1 **** 0
33 C 13.652 2.999 2.037 C.3 1 **** 0
34 C 14.71 3.782 2.39 C.3 1 **** 0
35 S 14.329 -0.35 -0.164 S.3 1 **** 0
36 S 16.295 3.119 1.754 S.3 1 **** 0
37 F 12.354 3.292 2.399 F 1 **** 0
38 C 14.785 5.019 3.157 C.3 1 **** 0
39 O 15.844 5.641 3.346 O.3 1 **** 0
40 O 13.569 5.416 3.652 O.3 1 **** 0
41 C 13.526 6.681 4.428 C.3 1 **** 0
42 H 14.497 6.801 4.915 H 1 **** 0
43 H 12.748 6.499 5.174 H 1 **** 0
44 C 13.198 7.902 3.555 C.3 1 **** 0
45 H 13.911 7.909 2.716 H 1 **** 0
46 C 13.455 9.18 4.403 C.3 1 **** 0
47 H 14.398 9.058 4.956 H 1 **** 0
48 H 12.661 9.277 5.16 H 1 **** 0
49 C 13.545 10.483 3.587 C.3 1 **** 0
50 H 12.606 10.66 3.045 H 1 **** 0
51 H 14.329 10.375 2.822 H 1 **** 0
52 C 13.855 11.715 4.458 C.3 1 **** 0
53 H 14.799 11.548 4.998 H 1 **** 0
54 H 13.076 11.819 5.228 H 1 **** 0
55 C 13.952 13.016 3.646 C.3 1 **** 0
56 H 14.172 13.875 4.292 H 1 **** 0
57 H 14.746 12.952 2.892 H 1 **** 0
58 H 13.011 13.225 3.122 H 1 **** 0
59 C 11.756 7.874 2.989 C.3 1 **** 0
60 H 11.06 7.688 3.823 H 1 **** 0
61 H 11.514 8.876 2.611 H 1 **** 0
62 C 11.498 6.857 1.863 C.3 1 **** 0
63 H 12.188 7.021 1.026 H 1 **** 0
64 H 11.625 5.827 2.203 H 1 **** 0
65 H 10.477 6.966 1.476 H 1 **** 0
66 C 16.136 -6.227 -3.249 C.3 1 **** 0
67 H 15.72 -6.291 -4.265 H 1 **** 0
68 H 15.294 -5.984 -2.59 H 1 **** 0
69 C 16.676 -7.648 -2.876 C.3 1 **** 0
70 H 15.805 -8.315 -2.982 H 1 **** 0
71 C 17.757 -8.099 -3.889 C.3 1 **** 0
72 H 17.377 -7.914 -4.906 H 1 **** 0
73 H 18.639 -7.454 -3.771 H 1 **** 0
74 C 18.202 -9.575 -3.803 C.3 1 **** 0
75 H 19.006 -9.73 -4.538 H 1 **** 0
76 H 18.652 -9.781 -2.822 H 1 **** 0
77 C 17.086 -10.603 -4.074 C.3 1 **** 0
78 H 16.3 -10.513 -3.312 H 1 **** 0
79 H 16.607 -10.37 -5.038 H 1 **** 0
80 C 17.604 -12.051 -4.096 C.3 1 **** 0
81 H 18.063 -12.319 -3.136 H 1 **** 0
82 H 16.793 -12.763 -4.289 H 1 **** 0
83 H 18.363 -12.186 -4.876 H 1 **** 0
84 C 17.162 -7.757 -1.411 C.3 1 **** 0
85 H 18.025 -7.093 -1.263 H 1 **** 0
86 H 17.53 -8.777 -1.244 H 1 **** 0
87 C 16.086 -7.451 -0.354 C.3 1 **** 0
88 H 15.772 -6.402 -0.375 H 1 **** 0
89 H 15.194 -8.072 -0.508 H 1 **** 0
90 H 16.464 -7.656 0.654 H 1 **** 0
91 C 24.405 2.813 2.626 C.3 1 **** 0
92 H 25.195 2.058 2.715 H 1 **** 0
93 H 24.889 3.717 2.229 H 1 **** 0
94 C 23.852 3.156 4.046 C.3 1 **** 0
95 H 23.047 3.894 3.899 H 1 **** 0
96 C 24.966 3.842 4.874 C.3 1 **** 0
97 H 25.809 3.148 5.007 H 1 **** 0
98 H 25.359 4.687 4.288 H 1 **** 0
99 C 24.518 4.37 6.25 C.3 1 **** 0
100 H 24.201 3.534 6.89 H 1 **** 0
101 H 23.635 5.014 6.123 H 1 **** 0
102 C 25.622 5.162 6.977 C.3 1 **** 0
103 H 26.507 4.52 7.097 H 1 **** 0
104 H 25.937 6.005 6.346 H 1 **** 0
105 C 25.179 5.687 8.352 C.3 1 **** 0
106 H 24.89 4.862 9.015 H 1 **** 0
107 H 25.983 6.247 8.845 H 1 **** 0
108 H 24.314 6.356 8.258 H 1 **** 0
109 C 23.213 1.934 4.754 C.3 1 **** 0
110 H 22.711 2.284 5.666 H 1 **** 0
111 H 22.419 1.536 4.11 H 1 **** 0
112 C 24.181 0.795 5.122 C.3 1 **** 0
113 H 24.957 1.128 5.821 H 1 **** 0
114 H 23.637 -0.027 5.6 H 1 **** 0
115 H 24.682 0.381 4.239 H 1 **** 0
116 H 23.797 -0.497 -1.312 H 1 **** 0
117 C 11.801 0.473 0.661 C.3 1 **** 0
118 C 11.266 -0.766 0.395 C.3 1 **** 0
119 S 10.474 1.729 0.867 S.3 1 **** 0
120 C 9.838 -0.82 0.312 C.3 1 **** 0
121 H 11.885 -1.645 0.273 H 1 **** 0
122 C 9.226 0.445 0.546 C.3 1 **** 0
123 C 9.031 -1.963 0.04 C.3 1 **** 0
124 C 7.844 0.658 0.531 C.3 1 **** 0
125 C 7.65 -1.749 0.034 C.3 1 **** 0
126 C 9.598 -3.292 -0.218 C.3 1 **** 0
127 C 7.037 -0.484 0.268 C.3 1 **** 0
128 C 7.276 1.989 0.777 C.3 1 **** 0
129 S 6.398 -3.031 -0.299 S.3 1 **** 0
130 C 9.293 -4.486 0.385 C.3 1 **** 0
131 S 10.838 -3.568 -1.533 S.3 1 **** 0
132 C 5.605 -0.539 0.207 C.3 1 **** 0
133 C 7.502 2.836 1.832 C.3 1 **** 0
134 S 6.156 2.791 -0.426 S.3 1 **** 0
135 C 5.077 -1.773 -0.08 C.3 1 **** 0
136 C 10.002 -5.62 -0.128 C.3 1 **** 0
137 H 8.585 -4.555 1.203 H 1 **** 0
138 C 10.87 -5.344 -1.149 C.3 1 **** 0
139 H 4.985 0.329 0.385 H 1 **** 0
140 C 6.819 4.093 1.753 C.3 1 **** 0
141 H 8.132 2.56 2.668 H 1 **** 0
142 C 6.054 4.27 0.631 C.3 1 **** 0
143 C 3.7 -2.136 -0.211 C.3 1 **** 0
144 H 9.871 -6.621 0.267 H 1 **** 0
145 C 11.759 -6.283 -1.915 C.3 1 **** 0
146 H 6.887 4.847 2.528 H 1 **** 0
147 C 5.2 5.445 0.248 C.3 1 **** 0
148 C 3.073 -3.348 -0.375 C.3 1 **** 0
149 S 2.422 -0.831 -0.169 S.3 1 **** 0
150 H 12.541 -5.721 -2.439 H 1 **** 0
151 H 12.28 -6.927 -1.191 H 1 **** 0
152 C 11.018 -7.207 -2.932 C.3 1 **** 0
153 H 4.893 5.942 1.178 H 1 **** 0
154 H 4.277 5.093 -0.229 H 1 **** 0
155 C 5.861 6.53 -0.666 C.3 1 **** 0
156 C 1.636 -3.319 -0.482 C.3 1 **** 0
157 S 3.742 -5.041 -0.499 S.3 1 **** 0
158 C 1.077 -2.044 -0.409 C.3 1 **** 0
159 H 10.236 -7.738 -2.365 H 1 **** 0
160 C 12.007 -8.273 -3.464 C.3 1 **** 0
161 C 10.294 -6.41 -4.048 C.3 1 **** 0
162 H 5.085 7.303 -0.787 H 1 **** 0
163 C 7.079 7.173 0.044 C.3 1 **** 0
164 C 6.219 6.009 -2.078 C.3 1 **** 0
165 C 1.118 -4.646 -0.679 C.3 1 **** 0
166 C 2.029 -5.657 -0.714 C.3 1 **** 0
167 H 12.841 -7.777 -3.983 H 1 **** 0
168 H 12.453 -8.787 -2.599 H 1 **** 0
169 C 11.386 -9.33 -4.394 C.3 1 **** 0
170 H 9.672 -7.107 -4.624 H 1 **** 0
171 H 9.597 -5.709 -3.572 H 1 **** 0
172 C 11.207 -5.636 -5.014 C.3 1 **** 0
173 H 6.796 7.398 1.085 H 1 **** 0
174 H 7.885 6.43 0.101 H 1 **** 0
175 C 7.631 8.467 -0.592 C.3 1 **** 0
176 H 6.973 5.215 -1.992 H 1 **** 0
177 H 6.697 6.825 -2.636 H 1 **** 0
178 C 5.02 5.5 -2.898 C.3 1 **** 0
179 F -0.237 -4.859 -0.817 F 1 **** 0
180 C 1.877 -7.099 -0.875 C.3 1 **** 0
181 H 11.027 -8.855 -5.318 H 1 **** 0
182 H 10.501 -9.77 -3.909 H 1 **** 0
183 C 12.37 -10.456 -4.765 C.3 1 **** 0
184 H 11.899 -6.301 -5.544 H 1 **** 0
185 H 10.607 -5.115 -5.769 H 1 **** 0
186 H 11.803 -4.876 -4.495 H 1 **** 0
187 H 8.55 8.746 -0.054 H 1 **** 0
188 H 7.941 8.28 -1.63 H 1 **** 0
189 C 6.664 9.666 -0.559 C.3 1 **** 0
190 H 4.577 4.596 -2.464 H 1 **** 0
191 H 4.233 6.263 -2.963 H 1 **** 0
192 H 5.327 5.251 -3.92 H 1 **** 0
193 O 2.834 -7.892 -0.834 O.3 1 **** 0
194 O 0.581 -7.497 -1.071 O.3 1 **** 0
195 H 13.266 -10.016 -5.228 H 1 **** 0
196 H 12.714 -10.953 -3.845 H 1 **** 0
197 C 11.762 -11.5 -5.715 C.3 1 **** 0
198 H 5.754 9.431 -1.129 H 1 **** 0
199 H 6.34 9.838 0.479 H 1 **** 0
200 C 7.292 10.953 -1.12 C.3 1 **** 0
201 C 0.353 -8.958 -1.199 C.3 1 **** 0
202 H 11.445 -11.038 -6.658 H 1 **** 0
203 H 12.483 -12.29 -5.955 H 1 **** 0
204 H 10.881 -11.976 -5.266 H 1 **** 0
205 H 7.598 10.819 -2.165 H 1 **** 0
206 H 6.587 11.792 -1.083 H 1 **** 0
207 H 8.183 11.238 -0.547 H 1 **** 0
208 H 0.682 -9.426 -0.266 H 1 **** 0
209 H 0.986 -9.332 -2.011 H 1 **** 0
210 C -1.13 -9.212 -1.471 C.3 1 **** 0
211 H -1.701 -8.77 -0.641 H 1 **** 0
212 C -1.366 -10.747 -1.448 C.3 1 **** 0
213 C -1.612 -8.573 -2.804 C.3 1 **** 0
214 H -0.783 -11.198 -0.631 H 1 **** 0
215 H -0.978 -11.184 -2.382 H 1 **** 0
216 C -2.841 -11.148 -1.266 C.3 1 **** 0
217 H -0.777 -8.572 -3.519 H 1 **** 0
218 H -2.387 -9.214 -3.246 H 1 **** 0
219 C -2.175 -7.148 -2.664 C.3 1 **** 0
220 H -3.456 -10.688 -2.053 H 1 **** 0
221 H -3.208 -10.742 -0.311 H 1 **** 0
222 C -3.062 -12.672 -1.288 C.3 1 **** 0
223 H -3.061 -7.146 -2.014 H 1 **** 0
224 H -1.44 -6.469 -2.227 H 1 **** 0
225 H -2.479 -6.752 -3.64 H 1 **** 0
226 H -2.448 -13.139 -0.503 H 1 **** 0
227 H -2.696 -13.076 -2.244 H 1 **** 0
228 C -4.534 -13.069 -1.093 C.3 1 **** 0
229 H -4.661 -14.158 -1.116 H 1 **** 0
230 H -4.915 -12.709 -0.129 H 1 **** 0
231 H -5.165 -12.642 -1.882 H 1 **** 0
232 C -0.256 -1.52 -0.48 C.3 1 **** 0
233 C -0.598 -0.219 -0.769 C.3 1 **** 0
234 S -1.752 -2.52 -0.101 S.3 1 **** 0
235 C -1.995 0.084 -0.706 C.3 1 **** 0
236 H 0.141 0.52 -1.049 H 1 **** 0
237 C -2.789 -1.048 -0.364 C.3 1 **** 0
238 C -2.616 1.342 -0.956 C.3 1 **** 0
239 C -4.184 -1.019 -0.255 C.3 1 **** 0
240 C -4.009 1.367 -0.857 C.3 1 **** 0
241 C -1.856 2.547 -1.309 C.3 1 **** 0
242 C -4.807 0.235 -0.519 C.3 1 **** 0
243 C -4.945 -2.221 0.108 C.3 1 **** 0
244 S -5.045 2.842 -1.119 S.3 1 **** 0
245 C -2.032 3.386 -2.38 C.3 1 **** 0
246 S -0.509 3.181 -0.248 S.3 1 **** 0
247 C -6.209 0.53 -0.497 C.3 1 **** 0
248 C -4.884 -3.475 -0.444 C.3 1 **** 0
249 S -6.112 -2.227 1.517 S.3 1 **** 0
250 C -6.539 1.832 -0.778 C.3 1 **** 0
251 C -1.143 4.508 -2.42 C.3 1 **** 0
252 H -2.773 3.195 -3.147 H 1 **** 0
253 C -0.258 4.582 -1.379 C.3 1 **** 0
254 H -6.956 -0.221 -0.279 H 1 **** 0
255 C -5.726 -4.45 0.181 C.3 1 **** 0
256 H -4.258 -3.7 -1.299 H 1 **** 0
257 C -6.458 -3.993 1.244 C.3 1 **** 0
258 C -7.841 2.421 -0.84 C.3 1 **** 0
259 H -1.16 5.242 -3.218 H 1 **** 0
260 C 0.795 5.618 -1.106 C.3 1 **** 0
261 H -5.793 -5.475 -0.165 H 1 **** 0
262 C -7.444 -4.742 2.095 C.3 1 **** 0
263 C -8.267 3.697 -1.12 C.3 1 **** 0
264 S -9.309 1.387 -0.507 S.3 1 **** 0
265 H 1.507 5.248 -0.359 H 1 **** 0
266 H 1.375 5.769 -2.029 H 1 **** 0
267 C 0.243 7.005 -0.653 C.3 1 **** 0
268 H -7.776 -5.612 1.512 H 1 **** 0
269 H -8.337 -4.127 2.261 H 1 **** 0
270 C -6.932 -5.273 3.476 C.3 1 **** 0
271 C -9.69 3.926 -1.075 C.3 1 **** 0
272 S -7.336 5.21 -1.536 S.3 1 **** 0
273 C -10.445 2.799 -0.747 C.3 1 **** 0
274 H -0.48 7.324 -1.421 H 1 **** 0
275 C 1.397 8.038 -0.65 C.3 1 **** 0
276 C -0.535 6.931 0.686 C.3 1 **** 0
277 H -7.781 -5.842 3.887 H 1 **** 0
278 C -5.747 -6.25 3.272 C.3 1 **** 0
279 C -6.6 -4.151 4.488 C.3 1 **** 0
280 C -9.987 5.305 -1.356 C.3 1 **** 0
281 C -8.926 6.116 -1.62 C.3 1 **** 0
282 H 2.171 7.727 0.068 H 1 **** 0
283 H 1.878 8.017 -1.641 H 1 **** 0
284 C 0.972 9.485 -0.343 C.3 1 **** 0
285 H -1.027 7.897 0.856 H 1 **** 0
286 H -1.343 6.197 0.573 H 1 **** 0
287 C 0.304 6.571 1.925 C.3 1 **** 0
288 H -6.015 -6.958 2.473 H 1 **** 0
289 H -4.885 -5.681 2.897 H 1 **** 0
290 C -5.311 -7.063 4.51 C.3 1 **** 0
291 H -5.756 -3.557 4.113 H 1 **** 0
292 H -6.253 -4.619 5.418 H 1 **** 0
293 C -7.778 -3.22 4.825 C.3 1 **** 0
294 F -11.289 5.76 -1.358 F 1 **** 0
295 C -8.843 7.533 -1.958 C.3 1 **** 0
296 H 0.588 9.554 0.684 H 1 **** 0
297 H 0.137 9.768 -1.004 H 1 **** 0
298 C 2.119 10.499 -0.516 C.3 1 **** 0
299 H 1.092 7.31 2.114 H 1 **** 0
300 H -0.332 6.534 2.817 H 1 **** 0
301 H 0.78 5.589 1.827 H 1 **** 0
302 H -4.423 -7.651 4.234 H 1 **** 0
303 H -4.983 -6.389 5.314 H 1 **** 0
304 C -6.382 -8.025 5.06 C.3 1 **** 0
305 H -8.086 -2.613 3.966 H 1 **** 0
306 H -8.652 -3.794 5.163 H 1 **** 0
307 H -7.506 -2.527 5.629 H 1 **** 0
308 O -7.77 8.106 -2.214 O.3 1 **** 0
309 O -10.055 8.169 -1.97 O.3 1 **** 0
310 H 2.962 10.204 0.127 H 1 **** 0
311 H 2.491 10.449 -1.55 H 1 **** 0
312 C 1.702 11.941 -0.188 C.3 1 **** 0
313 H -7.256 -7.455 5.405 H 1 **** 0
314 H -6.739 -8.672 4.244 H 1 **** 0
315 C -5.861 -8.895 6.216 C.3 1 **** 0
316 C -10.041 9.605 -2.347 C.3 1 **** 0
317 H 1.358 12.026 0.85 H 1 **** 0
318 H 2.536 12.639 -0.322 H 1 **** 0
319 H 0.882 12.271 -0.838 H 1 **** 0
320 H -5.52 -8.275 7.054 H 1 **** 0
321 H -6.64 -9.569 6.593 H 1 **** 0
322 H -5.013 -9.512 5.893 H 1 **** 0
323 H -9.67 9.671 -3.375 H 1 **** 0
324 H -9.331 10.121 -1.693 H 1 **** 0
325 C -11.454 10.174 -2.216 C.3 1 **** 0
326 H -12.115 9.581 -2.866 H 1 **** 0
327 C -11.433 11.631 -2.755 C.3 1 **** 0
328 C -11.996 10.104 -0.76 C.3 1 **** 0
329 H -10.805 11.68 -3.658 H 1 **** 0
330 H -10.952 12.283 -2.01 H 1 **** 0
331 C -12.825 12.188 -3.106 C.3 1 **** 0
332 H -11.151 10.211 -0.063 H 1 **** 0
333 H -12.645 10.972 -0.581 H 1 **** 0
334 C -12.783 8.825 -0.431 C.3 1 **** 0
335 H -13.487 12.131 -2.23 H 1 **** 0
336 H -13.281 11.552 -3.88 H 1 **** 0
337 C -12.783 13.644 -3.607 C.3 1 **** 0
338 H -13.671 8.744 -1.071 H 1 **** 0
339 H -12.176 7.931 -0.589 H 1 **** 0
340 H -13.124 8.834 0.611 H 1 **** 0
341 H -12.117 13.707 -4.481 H 1 **** 0
342 H -12.332 14.28 -2.831 H 1 **** 0
343 C -14.17 14.192 -3.978 C.3 1 **** 0
344 H -14.108 15.228 -4.333 H 1 **** 0
345 H -14.63 13.594 -4.774 H 1 **** 0
346 H -14.846 14.174 -3.115 H 1 **** 0
347 C -11.844 2.532 -0.581 C.3 1 **** 0
348 C -12.385 1.424 0.031 C.3 1 **** 0
349 S -13.167 3.62 -1.25 S.3 1 **** 0
350 C -13.813 1.337 0.006 C.3 1 **** 0
351 H -11.771 0.677 0.515 H 1 **** 0
352 C -14.421 2.45 -0.642 C.3 1 **** 0
353 C -14.623 0.296 0.547 C.3 1 **** 0
354 C -15.803 2.612 -0.783 C.3 1 **** 0
355 C -16.004 0.465 0.414 C.3 1 **** 0
356 C -14.06 -0.887 1.208 C.3 1 **** 0
357 C -16.614 1.583 -0.226 C.3 1 **** 0
358 C -16.366 3.782 -1.47 C.3 1 **** 0
359 S -17.259 -0.715 1.005 S.3 1 **** 0
360 C -14.37 -1.413 2.436 C.3 1 **** 0
361 S -12.821 -1.947 0.381 S.3 1 **** 0
362 C -18.048 1.514 -0.218 C.3 1 **** 0
363 C -16.106 5.11 -1.255 C.3 1 **** 0
364 S -17.523 3.602 -2.875 S.3 1 **** 0
365 C -18.576 0.396 0.372 C.3 1 **** 0
366 C -13.667 -2.615 2.772 C.3 1 **** 0
367 H -15.076 -0.938 3.106 H 1 **** 0
368 C -12.798 -3.064 1.814 C.3 1 **** 0
369 H -18.667 2.291 -0.644 H 1 **** 0
370 C -16.781 6.009 -2.144 C.3 1 **** 0
371 H -15.446 5.45 -0.466 H 1 **** 0
372 C -17.588 5.41 -3.074 C.3 1 **** 0
373 C -19.953 0.036 0.542 C.3 1 **** 0
374 H -13.802 -3.129 3.717 H 1 **** 0
375 C -11.92 -4.282 1.834 C.3 1 **** 0
376 H -16.659 7.084 -2.092 H 1 **** 0
377 C -18.426 6.042 -4.149 C.3 1 **** 0
378 C -20.557 -1.053 1.122 C.3 1 **** 0
379 S -21.27 1.157 -0.091 S.3 1 **** 0
380 H -11.089 -4.164 1.129 H 1 **** 0
381 H -11.466 -4.357 2.832 H 1 **** 0
382 C -12.656 -5.629 1.545 C.3 1 **** 0
383 H -18.424 5.406 -5.043 H 1 **** 0
384 H -17.936 6.979 -4.441 H 1 **** 0
385 C -19.917 6.352 -3.783 C.3 1 **** 0
386 C -21.998 -1.05 1.093 C.3 1 **** 0
387 S -19.914 -2.552 1.948 S.3 1 **** 0
388 C -22.549 0.049 0.487 C.3 1 **** 0
389 H -13.483 -5.698 2.269 H 1 **** 0
390 C -11.692 -6.807 1.829 C.3 1 **** 0
391 C -13.297 -5.675 0.134 C.3 1 **** 0
392 H -20.338 6.82 -4.686 H 1 **** 0
393 C -20.714 5.053 -3.498 C.3 1 **** 0
394 C -20.043 7.367 -2.623 C.3 1 **** 0
395 C -22.551 -2.221 1.716 C.3 1 **** 0
396 C -21.652 -3.11 2.212 C.3 1 **** 0
397 H -23.587 0.296 0.333 H 1 **** 0
398 H -10.826 -6.749 1.153 H 1 **** 0
399 H -11.291 -6.685 2.847 H 1 **** 0
400 C -12.33 -8.205 1.721 C.3 1 **** 0
401 H -13.918 -6.578 0.064 H 1 **** 0
402 H -13.989 -4.828 0.041 H 1 **** 0
403 C -12.311 -5.653 -1.048 C.3 1 **** 0
404 H -20.404 4.277 -4.215 H 1 **** 0
405 H -20.432 4.678 -2.505 H 1 **** 0
406 C -22.252 5.184 -3.57 C.3 1 **** 0
407 H -19.514 6.971 -1.745 H 1 **** 0
408 H -21.1 7.442 -2.336 H 1 **** 0
409 C -19.528 8.78 -2.948 C.3 1 **** 0
410 F -23.92 -2.37 1.773 F 1 **** 0
411 C -21.82 -4.385 2.902 C.3 1 **** 0
412 H -12.651 -8.393 0.687 H 1 **** 0
413 H -13.241 -8.238 2.338 H 1 **** 0
414 C -11.381 -9.336 2.16 C.3 1 **** 0
415 H -11.632 -6.514 -1.031 H 1 **** 0
416 H -12.856 -5.683 -1.998 H 1 **** 0
417 H -11.699 -4.743 -1.056 H 1 **** 0
418 H -22.694 4.258 -3.174 H 1 **** 0
419 H -22.596 5.99 -2.905 H 1 **** 0
420 C -22.809 5.423 -4.987 C.3 1 **** 0
421 H -18.451 8.791 -3.154 H 1 **** 0
422 H -20.038 9.194 -3.828 H 1 **** 0
423 H -19.707 9.463 -2.11 H 1 **** 0
424 O -20.867 -5.059 3.327 O.3 1 **** 0
425 O -23.129 -4.764 3.035 O.3 1 **** 0
426 H -10.466 -9.298 1.55 H 1 **** 0
427 H -11.064 -9.158 3.199 H 1 **** 0
428 C -12.015 -10.731 2.048 C.3 1 **** 0
429 H -22.408 6.36 -5.396 H 1 **** 0
430 H -22.454 4.62 -5.651 H 1 **** 0
431 C -24.345 5.475 -5.021 C.3 1 **** 0
432 C -23.377 -6.041 3.751 C.3 1 **** 0
433 H -12.311 -10.948 1.014 H 1 **** 0
434 H -11.319 -11.514 2.368 H 1 **** 0
435 H -12.914 -10.806 2.673 H 1 **** 0
436 H -24.727 6.286 -4.387 H 1 **** 0
437 H -24.718 5.643 -6.038 H 1 **** 0
438 H -24.78 4.536 -4.655 H 1 **** 0
439 H -23.03 -5.912 4.781 H 1 **** 0
440 H -22.766 -6.818 3.278 H 1 **** 0
441 C -24.867 -6.374 3.689 C.3 1 **** 0
442 H -25.416 -5.543 4.158 H 1 **** 0
443 C -25.105 -7.649 4.545 C.3 1 **** 0
444 C -25.381 -6.55 2.232 C.3 1 **** 0
445 H -24.5 -7.594 5.463 H 1 **** 0
446 H -24.742 -8.526 3.988 H 1 **** 0
447 C -26.575 -7.865 4.947 C.3 1 **** 0
448 H -24.559 -6.933 1.609 H 1 **** 0
449 H -26.156 -7.328 2.219 H 1 **** 0
450 C -25.958 -5.271 1.601 C.3 1 **** 0
451 H -27.211 -7.895 4.05 H 1 **** 0
452 H -26.917 -7.002 5.538 H 1 **** 0
453 C -26.796 -9.155 5.759 C.3 1 **** 0
454 H -26.828 -4.92 2.17 H 1 **** 0
455 H -25.22 -4.466 1.587 H 1 **** 0
456 H -26.288 -5.458 0.572 H 1 **** 0
457 H -26.16 -9.131 6.657 H 1 **** 0
458 H -26.456 -10.017 5.166 H 1 **** 0
459 C -28.261 -9.362 6.173 C.3 1 **** 0
460 H -28.387 -10.285 6.75 H 1 **** 0
461 H -28.617 -8.529 6.792 H 1 **** 0
462 H -28.915 -9.425 5.294 H 1 **** 0
@<TRIPOS>BOND
1 1 2 1
2 1 6 1
3 1 7 1
4 2 3 1
5 2 21 1
6 3 4 1
7 3 24 1
8 4 5 1
9 4 14 1
10 5 6 1
11 5 25 1
12 6 27 1
13 7 8 1
14 7 9 1
15 8 10 1
16 8 11 1
17 9 12 1
18 10 12 1
19 10 13 1
20 12 66 1
21 14 15 1
22 14 16 1
23 15 17 1
24 15 18 1
25 16 19 1
26 17 19 1
27 17 20 1
28 19 91 1
29 21 22 1
30 21 23 1
31 23 24 1
32 23 29 1
33 25 26 1
34 25 116 1
35 26 27 1
36 26 28 1
37 29 30 1
38 29 35 1
39 30 32 1
40 30 36 1
41 31 32 1
42 31 35 1
43 31 117 1
44 32 33 1
45 33 34 1
46 33 37 1
47 34 36 1
48 34 38 1
49 38 39 1
50 38 40 1
51 40 41 1
52 42 41 1
53 43 41 1
54 45 44 1
55 47 46 1
56 48 46 1
57 50 49 1
58 51 49 1
59 53 52 1
60 54 52 1
61 56 55 1
62 57 55 1
63 58 55 1
64 60 59 1
65 61 59 1
66 63 62 1
67 64 62 1
68 65 62 1
69 67 66 1
70 68 66 1
71 70 69 1
72 72 71 1
73 73 71 1
74 75 74 1
75 76 74 1
76 78 77 1
77 79 77 1
78 81 80 1
79 82 80 1
80 83 80 1
81 85 84 1
82 86 84 1
83 88 87 1
84 89 87 1
85 90 87 1
86 92 91 1
87 93 91 1
88 95 94 1
89 97 96 1
90 98 96 1
91 100 99 1
92 101 99 1
93 103 102 1
94 104 102 1
95 106 105 1
96 107 105 1
97 108 105 1
98 110 109 1
99 111 109 1
100 113 112 1
101 114 112 1
102 115 112 1
103 117 118 1
104 117 119 1
105 118 120 1
106 118 121 1
107 119 122 1
108 120 122 1
109 120 123 1
110 122 124 1
111 123 125 1
112 123 126 1
113 124 127 1
114 124 128 1
115 125 127 1
116 125 129 1
117 126 130 1
118 126 131 1
119 127 132 1
120 128 133 1
121 128 134 1
122 129 135 1
123 130 136 1
124 130 137 1
125 131 138 1
126 132 135 1
127 132 139 1
128 133 140 1
129 133 141 1
130 134 142 1
131 135 143 1
132 136 138 1
133 136 144 1
134 138 145 1
135 140 142 1
136 140 146 1
137 142 147 1
138 143 148 1
139 143 149 1
140 148 156 1
141 148 157 1
142 149 158 1
143 150 145 1
144 151 145 1
145 153 147 1
146 154 147 1
147 156 158 1
148 156 165 1
149 157 166 1
150 158 232 1
151 159 152 1
152 162 155 1
153 165 166 1
154 165 179 1
155 166 180 1
156 167 160 1
157 168 160 1
158 170 161 1
159 171 161 1
160 173 163 1
161 174 163 1
162 176 164 1
163 177 164 1
164 180 193 1
165 180 194 1
166 181 169 1
167 182 169 1
168 184 172 1
169 185 172 1
170 186 172 1
171 187 175 1
172 188 175 1
173 190 178 1
174 191 178 1
175 192 178 1
176 194 201 1
177 195 183 1
178 196 183 1
179 198 189 1
180 199 189 1
181 202 197 1
182 203 197 1
183 204 197 1
184 205 200 1
185 206 200 1
186 207 200 1
187 208 201 1
188 209 201 1
189 211 210 1
190 214 212 1
191 215 212 1
192 217 213 1
193 218 213 1
194 220 216 1
195 221 216 1
196 223 219 1
197 224 219 1
198 225 219 1
199 226 222 1
200 227 222 1
201 229 228 1
202 230 228 1
203 231 228 1
204 232 233 1
205 232 234 1
206 233 235 1
207 233 236 1
208 234 237 1
209 235 237 1
210 235 238 1
211 237 239 1
212 238 240 1
213 238 241 1
214 239 242 1
215 239 243 1
216 240 242 1
217 240 244 1
218 241 245 1
219 241 246 1
220 242 247 1
221 243 248 1
222 243 249 1
223 244 250 1
224 245 251 1
225 245 252 1
226 246 253 1
227 247 250 1
228 247 254 1
229 248 255 1
230 248 256 1
231 249 257 1
232 250 258 1
233 251 253 1
234 251 259 1
235 253 260 1
236 255 257 1
237 255 261 1
238 257 262 1
239 258 263 1
240 258 264 1
241 263 271 1
242 263 272 1
243 264 273 1
244 265 260 1
245 266 260 1
246 268 262 1
247 269 262 1
248 271 273 1
249 271 280 1
250 272 281 1
251 273 347 1
252 274 267 1
253 277 270 1
254 280 281 1
255 280 294 1
256 281 295 1
257 282 275 1
258 283 275 1
259 285 276 1
260 286 276 1
261 288 278 1
262 289 278 1
263 291 279 1
264 292 279 1
265 295 308 1
266 295 309 1
267 296 284 1
268 297 284 1
269 299 287 1
270 300 287 1
271 301 287 1
272 302 290 1
273 303 290 1
274 305 293 1
275 306 293 1
276 307 293 1
277 309 316 1
278 310 298 1
279 311 298 1
280 313 304 1
281 314 304 1
282 317 312 1
283 318 312 1
284 319 312 1
285 320 315 1
286 321 315 1
287 322 315 1
288 323 316 1
289 324 316 1
290 326 325 1
291 329 327 1
292 330 327 1
293 332 328 1
294 333 328 1
295 335 331 1
296 336 331 1
297 338 334 1
298 339 334 1
299 340 334 1
300 341 337 1
301 342 337 1
302 344 343 1
303 345 343 1
304 346 343 1
305 347 348 1
306 347 349 1
307 348 350 1
308 348 351 1
309 349 352 1
310 350 352 1
311 350 353 1
312 352 354 1
313 353 355 1
314 353 356 1
315 354 357 1
316 354 358 1
317 355 357 1
318 355 359 1
319 356 360 1
320 356 361 1
321 357 362 1
322 358 363 1
323 358 364 1
324 359 365 1
325 360 366 1
326 360 367 1
327 361 368 1
328 362 365 1
329 362 369 1
330 363 370 1
331 363 371 1
332 364 372 1
333 365 373 1
334 366 368 1
335 366 374 1
336 368 375 1
337 370 372 1
338 370 376 1
339 372 377 1
340 373 378 1
341 373 379 1
342 378 386 1
343 378 387 1
344 379 388 1
345 380 375 1
346 381 375 1
347 383 377 1
348 384 377 1
349 386 388 1
350 386 395 1
351 387 396 1
352 388 397 1
353 389 382 1
354 392 385 1
355 395 396 1
356 395 410 1
357 396 411 1
358 398 390 1
359 399 390 1
360 401 391 1
361 402 391 1
362 404 393 1
363 405 393 1
364 407 394 1
365 408 394 1
366 411 424 1
367 411 425 1
368 412 400 1
369 413 400 1
370 415 403 1
371 416 403 1
372 417 403 1
373 418 406 1
374 419 406 1
375 421 409 1
376 422 409 1
377 423 409 1
378 425 432 1
379 426 414 1
380 427 414 1
381 429 420 1
382 430 420 1
383 433 428 1
384 434 428 1
385 435 428 1
386 436 431 1
387 437 431 1
388 438 431 1
389 439 432 1
390 440 432 1
391 442 441 1
392 445 443 1
393 446 443 1
394 448 444 1
395 449 444 1
396 451 447 1
397 452 447 1
398 454 450 1
399 455 450 1
400 456 450 1
401 457 453 1
402 458 453 1
403 460 459 1
404 461 459 1
405 462 459 1
406 41 44 1
407 44 46 1
408 44 59 1
409 46 49 1
410 49 52 1
411 52 55 1
412 59 62 1
413 66 69 1
414 69 71 1
415 69 84 1
416 71 74 1
417 74 77 1
418 77 80 1
419 84 87 1
420 91 94 1
421 94 109 1
422 94 96 1
423 96 99 1
424 99 102 1
425 102 105 1
426 109 112 1
427 145 152 1
428 147 155 1
429 152 160 1
430 152 161 1
431 155 164 1
432 155 163 1
433 160 169 1
434 161 172 1
435 163 175 1
436 164 178 1
437 169 183 1
438 175 189 1
439 183 197 1
440 189 200 1
441 201 210 1
442 210 212 1
443 210 213 1
444 212 216 1
445 213 219 1
446 216 222 1
447 222 228 1
448 260 267 1
449 262 270 1
450 267 275 1
451 267 276 1
452 270 278 1
453 270 279 1
454 275 284 1
455 276 287 1
456 278 290 1
457 279 293 1
458 284 298 1
459 290 304 1
460 298 312 1
461 304 315 1
462 316 325 1
463 325 328 1
464 325 327 1
465 327 331 1
466 328 334 1
467 331 337 1
468 337 343 1
469 375 382 1
470 377 385 1
471 382 391 1
472 382 390 1
473 385 393 1
474 385 394 1
475 390 400 1
476 391 403 1
477 393 406 1
478 394 409 1
479 400 414 1
480 406 420 1
481 414 428 1
482 420 431 1
483 432 441 1
484 441 443 1
485 441 444 1
486 443 447 1
487 444 450 1
488 447 453 1
489 453 459 1
@<TRIPOS>SUBSTRUCTURE
1 **** 1 **** **** C196
