# Mol2 file generated by Materials Studio
@<TRIPOS>MOLECULE
PVCN_decamer_fixed
232 241 1 0 0 
SMALL
USER_CHARGES


@<TRIPOS>ATOM
1 C1 10.037 5.534 3.453 C.3 1 MOL1 0
2 C2 10.596 4.447 2.781 C.3 1 MOL1 0
3 C3 9.834 3.282 2.54 C.3 1 MOL1 0
4 C4 8.499 3.243 2.999 C.3 1 MOL1 0
5 C5 7.942 4.335 3.668 C.3 1 MOL1 0
6 C6 8.708 5.483 3.898 C.3 1 MOL1 0
7 H7 10.637 6.42 3.634 H 1 MOL1 0
8 H8 11.628 4.498 2.451 H 1 MOL1 0
9 H9 7.885 2.365 2.824 H 1 MOL1 0
10 H10 6.912 4.28 4.004 H 1 MOL1 0
11 H11 8.278 6.332 4.421 H 1 MOL1 0
12 C12 10.362 2.114 1.832 C.3 1 MOL1 0
13 H13 9.708 1.246 1.816 H 1 MOL1 0
14 C14 11.555 2.01 1.203 C.3 1 MOL1 0
15 H15 12.266 2.828 1.166 H 1 MOL1 0
16 C16 12.017 0.813 0.502 C.3 1 MOL1 0
17 O17 13.116 0.717 -0.067 O.3 1 MOL1 0
18 O18 11.097 -0.231 0.521 O.3 1 MOL1 0
19 C19 11.459 -1.49 -0.165 C.3 1 MOL1 0
20 H20 11.176 -2.279 0.538 H 1 MOL1 0
21 H21 12.54 -1.495 -0.317 H 1 MOL1 0
22 C22 10.726 -1.647 -1.497 C.3 1 MOL1 0
23 H23 11.024 -0.851 -2.19 H 1 MOL1 0
24 H24 11.057 -2.6 -1.925 H 1 MOL1 0
25 C25 9.195 -1.688 -1.369 C.3 1 MOL1 0
26 O26 8.592 -2.293 -2.583 O.3 1 MOL1 0
27 C27 8.535 -0.308 -1.302 C.3 1 MOL1 0
28 H28 8.922 -2.327 -0.52 H 1 MOL1 0
29 C29 8.562 -3.673 -2.718 C.3 1 MOL1 0
30 H30 8.719 0.19 -2.261 H 1 MOL1 0
31 H31 9.017 0.286 -0.521 H 1 MOL1 0
32 C32 7.701 -4.114 -3.815 C.3 1 MOL1 0
33 O33 9.196 -4.426 -1.957 O.3 1 MOL1 0
34 C34 6.843 -3.283 -4.452 C.3 1 MOL1 0
35 H35 7.763 -5.175 -4.028 H 1 MOL1 0
36 C36 5.901 -3.628 -5.518 C.3 1 MOL1 0
37 H37 6.814 -2.244 -4.132 H 1 MOL1 0
38 C38 5.908 -4.871 -6.188 C.3 1 MOL1 0
39 C39 4.937 -2.665 -5.889 C.3 1 MOL1 0
40 C40 4.977 -5.141 -7.191 C.3 1 MOL1 0
41 H41 6.65 -5.62 -5.931 H 1 MOL1 0
42 C42 4.003 -2.941 -6.89 C.3 1 MOL1 0
43 H43 4.923 -1.709 -5.372 H 1 MOL1 0
44 C44 4.02 -4.179 -7.544 C.3 1 MOL1 0
45 H45 4.997 -6.099 -7.701 H 1 MOL1 0
46 H46 3.263 -2.194 -7.158 H 1 MOL1 0
47 H47 3.297 -4.393 -8.326 H 1 MOL1 0
48 C48 7.019 -0.371 -1.07 C.3 1 MOL1 0
49 O49 6.44 0.927 -1.521 O.3 1 MOL1 0
50 C50 6.632 -0.545 0.401 C.3 1 MOL1 0
51 H51 6.582 -1.145 -1.702 H 1 MOL1 0
52 C52 5.74 0.963 -2.715 C.3 1 MOL1 0
53 H53 7.162 0.199 1.004 H 1 MOL1 0
54 H54 6.957 -1.539 0.734 H 1 MOL1 0
55 C55 5.288 2.303 -3.085 C.3 1 MOL1 0
56 O56 5.508 -0.06 -3.389 O.3 1 MOL1 0
57 C57 5.566 3.413 -2.366 C.3 1 MOL1 0
58 H58 4.708 2.327 -4.001 H 1 MOL1 0
59 C59 5.157 4.786 -2.665 C.3 1 MOL1 0
60 H60 6.161 3.287 -1.464 H 1 MOL1 0
61 C61 4.361 5.13 -3.78 C.3 1 MOL1 0
62 C62 5.577 5.817 -1.798 C.3 1 MOL1 0
63 C63 4.004 6.457 -4.016 C.3 1 MOL1 0
64 H64 4.019 4.358 -4.461 H 1 MOL1 0
65 C65 5.22 7.146 -2.036 C.3 1 MOL1 0
66 H66 6.188 5.566 -0.936 H 1 MOL1 0
67 C67 4.432 7.47 -3.146 C.3 1 MOL1 0
68 H68 3.39 6.704 -4.876 H 1 MOL1 0
69 H69 5.553 7.924 -1.358 H 1 MOL1 0
70 H70 4.151 8.501 -3.333 H 1 MOL1 0
71 C71 5.131 -0.398 0.688 C.3 1 MOL1 0
72 O72 4.882 -0.687 2.125 O.3 1 MOL1 0
73 C73 4.234 -1.402 -0.043 C.3 1 MOL1 0
74 H74 4.83 0.638 0.505 H 1 MOL1 0
75 C75 5.161 0.261 3.092 C.3 1 MOL1 0
76 H76 4.52 -2.408 0.282 H 1 MOL1 0
77 H77 4.401 -1.343 -1.125 H 1 MOL1 0
78 C78 4.636 -0.1 4.407 C.3 1 MOL1 0
79 O79 5.789 1.307 2.837 O.3 1 MOL1 0
80 C80 3.784 -1.134 4.601 C.3 1 MOL1 0
81 H81 4.95 0.565 5.205 H 1 MOL1 0
82 C82 3.177 -1.556 5.864 C.3 1 MOL1 0
83 H83 3.485 -1.714 3.731 H 1 MOL1 0
84 C84 3.551 -1.031 7.12 C.3 1 MOL1 0
85 C85 2.169 -2.544 5.816 C.3 1 MOL1 0
86 C86 2.932 -1.475 8.287 C.3 1 MOL1 0
87 H87 4.334 -0.282 7.182 H 1 MOL1 0
88 C88 1.549 -2.984 6.988 C.3 1 MOL1 0
89 H89 1.875 -2.948 4.851 H 1 MOL1 0
90 C90 1.928 -2.452 8.226 C.3 1 MOL1 0
91 H91 3.231 -1.065 9.247 H 1 MOL1 0
92 H92 0.771 -3.74 6.936 H 1 MOL1 0
93 H93 1.448 -2.796 9.137 H 1 MOL1 0
94 C94 2.74 -1.197 0.261 C.3 1 MOL1 0
95 O95 2.04 -2.487 0.01 O.3 1 MOL1 0
96 C96 2.069 -0.152 -0.633 C.3 1 MOL1 0
97 H97 2.615 -0.973 1.321 H 1 MOL1 0
98 C98 1.604 -3.236 1.088 C.3 1 MOL1 0
99 H99 2.23 -0.421 -1.683 H 1 MOL1 0
100 H100 2.548 0.821 -0.461 H 1 MOL1 0
101 C101 0.931 -4.474 0.702 C.3 1 MOL1 0
102 O102 1.76 -2.868 2.27 O.3 1 MOL1 0
103 C103 0.744 -4.857 -0.581 C.3 1 MOL1 0
104 H104 0.586 -5.062 1.546 H 1 MOL1 0
105 C105 0.076 -6.07 -1.053 C.3 1 MOL1 0
106 H106 1.127 -4.2 -1.358 H 1 MOL1 0
107 C107 -0.495 -7.027 -0.185 C.3 1 MOL1 0
108 C108 -0.006 -6.294 -2.444 C.3 1 MOL1 0
109 C109 -1.121 -8.163 -0.693 C.3 1 MOL1 0
110 H110 -0.451 -6.879 0.889 H 1 MOL1 0
111 C111 -0.633 -7.433 -2.953 C.3 1 MOL1 0
112 H112 0.426 -5.564 -3.122 H 1 MOL1 0
113 C113 -1.193 -8.372 -2.079 C.3 1 MOL1 0
114 H114 -1.556 -8.889 -0.013 H 1 MOL1 0
115 H115 -0.686 -7.587 -4.025 H 1 MOL1 0
116 H116 -1.682 -9.258 -2.471 H 1 MOL1 0
117 C117 0.557 -0.003 -0.412 C.3 1 MOL1 0
118 O118 0.056 1.072 -1.3 O.3 1 MOL1 0
119 C119 0.144 0.463 0.989 C.3 1 MOL1 0
120 H120 0.061 -0.933 -0.705 H 1 MOL1 0
121 C121 -0.311 0.785 -2.606 C.3 1 MOL1 0
122 H122 0.555 1.466 1.146 H 1 MOL1 0
123 H123 0.566 -0.199 1.754 H 1 MOL1 0
124 C124 -1.014 1.9 -3.241 C.3 1 MOL1 0
125 O125 -0.07 -0.311 -3.139 O.3 1 MOL1 0
126 C126 -1.437 2.985 -2.551 C.3 1 MOL1 0
127 H127 -1.213 1.754 -4.298 H 1 MOL1 0
128 C128 -2.185 4.13 -3.072 C.3 1 MOL1 0
129 H129 -1.231 3.016 -1.483 H 1 MOL1 0
130 C130 -2.424 4.345 -4.446 C.3 1 MOL1 0
131 C131 -2.693 5.066 -2.143 C.3 1 MOL1 0
132 C132 -3.151 5.455 -4.876 C.3 1 MOL1 0
133 H133 -2.033 3.647 -5.179 H 1 MOL1 0
134 C134 -3.423 6.175 -2.577 C.3 1 MOL1 0
135 H135 -2.515 4.901 -1.084 H 1 MOL1 0
136 C136 -3.654 6.374 -3.943 C.3 1 MOL1 0
137 H137 -3.325 5.609 -5.936 H 1 MOL1 0
138 H138 -3.81 6.884 -1.851 H 1 MOL1 0
139 H139 -4.22 7.237 -4.281 H 1 MOL1 0
140 C140 -1.384 0.529 1.155 C.3 1 MOL1 0
141 O141 -1.725 1.449 2.267 O.3 1 MOL1 0
142 C142 -2.012 -0.806 1.572 C.3 1 MOL1 0
143 H143 -1.827 0.942 0.245 H 1 MOL1 0
144 C144 -2.045 2.769 2.01 C.3 1 MOL1 0
145 H145 -1.648 -1.044 2.576 H 1 MOL1 0
146 H146 -1.675 -1.605 0.9 H 1 MOL1 0
147 C147 -2.635 3.437 3.169 C.3 1 MOL1 0
148 O148 -1.863 3.302 0.898 O.3 1 MOL1 0
149 C149 -3.082 2.757 4.251 C.3 1 MOL1 0
150 H150 -2.746 4.511 3.057 H 1 MOL1 0
151 C151 -3.739 3.313 5.435 C.3 1 MOL1 0
152 H152 -2.982 1.675 4.243 H 1 MOL1 0
153 C153 -3.793 4.696 5.716 C.3 1 MOL1 0
154 C154 -4.348 2.414 6.338 C.3 1 MOL1 0
155 C155 -4.441 5.162 6.86 C.3 1 MOL1 0
156 H156 -3.314 5.403 5.047 H 1 MOL1 0
157 C157 -4.999 2.886 7.48 C.3 1 MOL1 0
158 H158 -4.312 1.35 6.121 H 1 MOL1 0
159 C159 -5.048 4.259 7.745 C.3 1 MOL1 0
160 H160 -4.47 6.227 7.067 H 1 MOL1 0
161 H161 -5.466 2.184 8.163 H 1 MOL1 0
162 H162 -5.55 4.626 8.635 H 1 MOL1 0
163 C163 -3.547 -0.766 1.601 C.3 1 MOL1 0
164 O164 -4.052 -1.861 2.464 O.3 1 MOL1 0
165 C165 -4.202 -1.034 0.241 C.3 1 MOL1 0
166 H166 -3.875 0.176 2.05 H 1 MOL1 0
167 C167 -4.338 -1.629 3.796 C.3 1 MOL1 0
168 H168 -3.96 -2.063 -0.046 H 1 MOL1 0
169 H169 -3.774 -0.368 -0.519 H 1 MOL1 0
170 C170 -5.09 -2.725 4.405 C.3 1 MOL1 0
171 O171 -4 -0.583 4.383 O.3 1 MOL1 0
172 C172 -5.667 -3.706 3.67 C.3 1 MOL1 0
173 H173 -5.199 -2.649 5.481 H 1 MOL1 0
174 C174 -6.484 -4.817 4.16 C.3 1 MOL1 0
175 H175 -5.548 -3.663 2.59 H 1 MOL1 0
176 C176 -6.626 -5.134 5.529 C.3 1 MOL1 0
177 C177 -7.162 -5.609 3.208 C.3 1 MOL1 0
178 C178 -7.424 -6.204 5.93 C.3 1 MOL1 0
179 H179 -6.101 -4.548 6.277 H 1 MOL1 0
180 C180 -7.964 -6.679 3.614 C.3 1 MOL1 0
181 H181 -7.06 -5.363 2.155 H 1 MOL1 0
182 C182 -8.097 -6.98 4.974 C.3 1 MOL1 0
183 H183 -7.522 -6.439 6.985 H 1 MOL1 0
184 H184 -8.483 -7.276 2.871 H 1 MOL1 0
185 H185 -8.717 -7.813 5.29 H 1 MOL1 0
186 C186 -5.73 -0.879 0.269 C.3 1 MOL1 0
187 O187 -6.325 -1.615 -0.872 O.3 1 MOL1 0
188 C188 -6.212 0.563 0.073 C.3 1 MOL1 0
189 H189 -6.12 -1.333 1.185 H 1 MOL1 0
190 C190 -6.734 -2.927 -0.717 C.3 1 MOL1 0
191 H191 -5.917 0.874 -0.936 H 1 MOL1 0
192 H192 -5.704 1.227 0.785 H 1 MOL1 0
193 C193 -7.545 -3.397 -1.84 C.3 1 MOL1 0
194 O194 -6.446 -3.605 0.288 O.3 1 MOL1 0
195 C195 -8.059 -2.555 -2.767 C.3 1 MOL1 0
196 H196 -7.751 -4.461 -1.827 H 1 MOL1 0
197 C197 -8.921 -2.9 -3.897 C.3 1 MOL1 0
198 H198 -7.843 -1.494 -2.66 H 1 MOL1 0
199 C199 -9.183 -4.228 -4.299 C.3 1 MOL1 0
200 C200 -9.518 -1.844 -4.621 C.3 1 MOL1 0
201 C201 -10.019 -4.489 -5.384 C.3 1 MOL1 0
202 H202 -8.722 -5.055 -3.768 H 1 MOL1 0
203 C203 -10.357 -2.11 -5.705 C.3 1 MOL1 0
204 H204 -9.324 -0.822 -4.31 H 1 MOL1 0
205 C205 -10.61 -3.431 -6.09 C.3 1 MOL1 0
206 H206 -10.209 -5.515 -5.685 H 1 MOL1 0
207 H207 -10.813 -1.288 -6.249 H 1 MOL1 0
208 H208 -11.26 -3.639 -6.935 H 1 MOL1 0
209 C209 -7.734 0.713 0.216 C.3 1 MOL1 0
210 O210 -8.146 1.984 -0.444 O.3 1 MOL1 0
211 C211 -8.227 0.818 1.654 C.3 1 MOL1 0
212 H212 -8.231 -0.097 -0.323 H 1 MOL1 0
213 C213 -8.536 1.943 -1.768 C.3 1 MOL1 0
214 H214 -9.317 0.909 1.684 H 1 MOL1 0
215 H215 -7.791 1.694 2.147 H 1 MOL1 0
216 H216 -7.943 -0.075 2.222 H 1 MOL1 0
217 C217 -8.924 3.249 -2.306 C.3 1 MOL1 0
218 O218 -8.559 0.89 -2.434 O.3 1 MOL1 0
219 C219 -8.907 4.393 -1.588 C.3 1 MOL1 0
220 H220 -9.231 3.214 -3.345 H 1 MOL1 0
221 C221 -9.28 5.732 -2.049 C.3 1 MOL1 0
222 H222 -8.586 4.325 -0.551 H 1 MOL1 0
223 C223 -9.688 6.009 -3.372 C.3 1 MOL1 0
224 C224 -9.231 6.799 -1.127 C.3 1 MOL1 0
225 C225 -10.035 7.305 -3.753 C.3 1 MOL1 0
226 H226 -9.731 5.21 -4.104 H 1 MOL1 0
227 C227 -9.58 8.097 -1.508 C.3 1 MOL1 0
228 H228 -8.918 6.6 -0.106 H 1 MOL1 0
229 C229 -9.983 8.354 -2.823 C.3 1 MOL1 0
230 H230 -10.346 7.501 -4.774 H 1 MOL1 0
231 H231 -9.537 8.903 -0.783 H 1 MOL1 0
232 H232 -10.255 9.361 -3.124 H 1 MOL1 0
@<TRIPOS>BOND
1 1 2 1
2 1 6 1
3 1 7 1
4 2 3 1
5 2 8 1
6 3 4 1
7 3 12 1
8 4 5 1
9 4 9 1
10 5 6 1
11 5 10 1
12 6 11 1
13 12 13 1
14 12 14 1
15 14 15 1
16 14 16 1
17 16 17 1
18 16 18 1
19 18 19 1
20 20 19 1
21 21 19 1
22 23 22 1
23 24 22 1
24 26 25 1
25 26 29 1
26 28 25 1
27 29 32 1
28 29 33 1
29 30 27 1
30 31 27 1
31 32 34 1
32 32 35 1
33 34 36 1
34 34 37 1
35 36 38 1
36 36 39 1
37 38 40 1
38 38 41 1
39 39 42 1
40 39 43 1
41 40 44 1
42 40 45 1
43 42 44 1
44 42 46 1
45 44 47 1
46 49 48 1
47 49 52 1
48 51 48 1
49 52 55 1
50 52 56 1
51 53 50 1
52 54 50 1
53 55 57 1
54 55 58 1
55 57 59 1
56 57 60 1
57 59 61 1
58 59 62 1
59 61 63 1
60 61 64 1
61 62 65 1
62 62 66 1
63 63 67 1
64 63 68 1
65 65 67 1
66 65 69 1
67 67 70 1
68 72 71 1
69 72 75 1
70 74 71 1
71 75 78 1
72 75 79 1
73 76 73 1
74 77 73 1
75 78 80 1
76 78 81 1
77 80 82 1
78 80 83 1
79 82 84 1
80 82 85 1
81 84 86 1
82 84 87 1
83 85 88 1
84 85 89 1
85 86 90 1
86 86 91 1
87 88 90 1
88 88 92 1
89 90 93 1
90 95 94 1
91 95 98 1
92 97 94 1
93 98 101 1
94 98 102 1
95 99 96 1
96 100 96 1
97 101 103 1
98 101 104 1
99 103 105 1
100 103 106 1
101 105 107 1
102 105 108 1
103 107 109 1
104 107 110 1
105 108 111 1
106 108 112 1
107 109 113 1
108 109 114 1
109 111 113 1
110 111 115 1
111 113 116 1
112 118 117 1
113 118 121 1
114 120 117 1
115 121 124 1
116 121 125 1
117 122 119 1
118 123 119 1
119 124 126 1
120 124 127 1
121 126 128 1
122 126 129 1
123 128 130 1
124 128 131 1
125 130 132 1
126 130 133 1
127 131 134 1
128 131 135 1
129 132 136 1
130 132 137 1
131 134 136 1
132 134 138 1
133 136 139 1
134 141 140 1
135 141 144 1
136 143 140 1
137 144 147 1
138 144 148 1
139 145 142 1
140 146 142 1
141 147 149 1
142 147 150 1
143 149 151 1
144 149 152 1
145 151 153 1
146 151 154 1
147 153 155 1
148 153 156 1
149 154 157 1
150 154 158 1
151 155 159 1
152 155 160 1
153 157 159 1
154 157 161 1
155 159 162 1
156 164 163 1
157 164 167 1
158 166 163 1
159 167 170 1
160 167 171 1
161 168 165 1
162 169 165 1
163 170 172 1
164 170 173 1
165 172 174 1
166 172 175 1
167 174 176 1
168 174 177 1
169 176 178 1
170 176 179 1
171 177 180 1
172 177 181 1
173 178 182 1
174 178 183 1
175 180 182 1
176 180 184 1
177 182 185 1
178 187 186 1
179 187 190 1
180 189 186 1
181 190 193 1
182 190 194 1
183 191 188 1
184 192 188 1
185 193 195 1
186 193 196 1
187 195 197 1
188 195 198 1
189 197 199 1
190 197 200 1
191 199 201 1
192 199 202 1
193 200 203 1
194 200 204 1
195 201 205 1
196 201 206 1
197 203 205 1
198 203 207 1
199 205 208 1
200 210 209 1
201 210 213 1
202 212 209 1
203 213 217 1
204 213 218 1
205 214 211 1
206 215 211 1
207 216 211 1
208 217 219 1
209 217 220 1
210 219 221 1
211 219 222 1
212 221 223 1
213 221 224 1
214 223 225 1
215 223 226 1
216 224 227 1
217 224 228 1
218 225 229 1
219 225 230 1
220 227 229 1
221 227 231 1
222 229 232 1
223 19 22 1
224 22 25 1
225 25 27 1
226 27 48 1
227 48 50 1
228 50 71 1
229 71 73 1
230 73 94 1
231 94 96 1
232 96 117 1
233 117 119 1
234 119 140 1
235 140 142 1
236 142 163 1
237 163 165 1
238 165 186 1
239 186 188 1
240 188 209 1
241 209 211 1
@<TRIPOS>SUBSTRUCTURE
1 MOL1 1 **** **** C110
